<routes xmlns:xsi="http://www.w3.org/2001/XMLSchema-instance" xsi:noNamespaceSchemaLocation="http://sumo.dlr.de/xsd/routes_file.xsd">
    
    <!-- Normal Vehicle Types -->
    <vType id="normal_car" accel="0.8" decel="4.5" sigma="0.5" length="5" minGap="2.5" maxSpeed="14" color="1,1,0"/>
    <vType id="normal_truck" accel="0.6" decel="4.0" sigma="0.3" length="7.5" minGap="3" maxSpeed="11" color="0.5,0.5,0.5"/>
    <vType id="normal_bus" accel="0.7" decel="4.2" sigma="0.4" length="12" minGap="3" maxSpeed="12" color="0,0.5,1"/>
    
    <!-- Emergency Vehicle Types -->
    <vType id="ambulance" accel="2.0" decel="6.0" sigma="0" length="6" minGap="1.5" maxSpeed="20" color="1,0,0" speedFactor="1.3" speedDev="0"/>
    <vType id="firetruck" accel="1.5" decel="5.5" sigma="0" length="8" minGap="2" maxSpeed="18" color="1,0.3,0" speedFactor="1.2" speedDev="0"/>
    <vType id="police" accel="2.2" decel="6.5" sigma="0" length="5" minGap="1.5" maxSpeed="22" color="0,0,1" speedFactor="1.4" speedDev="0"/>
    
    <!-- Routes -->
    <route id="horizontal" edges="2fi 2si 1o 1fi 1si 2o 2fi"/>
    <route id="vertical" edges="3fi 3si 4o 4fi 4si 3o 3fi"/>
    <route id="always_right" edges="1fi 1si 4o 4fi 4si 2o 2fi 2si 3o 3fi 3si 1o 1fi"/>
    <route id="always_left" edges="3fi 3si 2o 2fi 2si 4o 4fi 4si 1o 1fi 1si 3o 3fi"/>
    <route id="north_south" edges="3fi 3si 4o"/>
    <route id="south_north" edges="4fi 4si 3o"/>
    <route id="east_west" edges="1fi 1si 2o"/>
    <route id="west_east" edges="2fi 2si 1o"/>


    <vehicle id="horizontal_0" type="normal_car" route="horizontal" depart="1"/>
    <vehicle id="vertical_1" type="normal_truck" route="vertical" depart="4"/>
    <vehicle id="vertical_2" type="normal_car" route="vertical" depart="5"/>
    <vehicle id="horizontal_3" type="normal_car" route="horizontal" depart="11"/>
    <vehicle id="vertical_4" type="normal_truck" route="vertical" depart="25"/>
    <vehicle id="vertical_5" type="normal_car" route="vertical" depart="27"/>
    <vehicle id="emergency_0" type="ambulance" route="east_west" depart="30" departSpeed="max"/>
    <vehicle id="horizontal_7" type="normal_car" route="horizontal" depart="34"/>
    <vehicle id="horizontal_8" type="normal_car" route="horizontal" depart="37"/>
    <vehicle id="emergency_1" type="police" route="west_east" depart="38" departSpeed="max"/>
    <vehicle id="right_10" type="normal_car" route="always_right" depart="39"/>
    <vehicle id="horizontal_11" type="normal_car" route="horizontal" depart="44"/>
    <vehicle id="horizontal_12" type="normal_car" route="horizontal" depart="57"/>
    <vehicle id="vertical_13" type="normal_truck" route="vertical" depart="59"/>
    <vehicle id="emergency_2" type="ambulance" route="north_south" depart="62" departSpeed="max"/>
    <vehicle id="left_15" type="normal_car" route="always_left" depart="73"/>
    <vehicle id="right_16" type="normal_car" route="always_right" depart="74"/>
    <vehicle id="horizontal_17" type="normal_car" route="horizontal" depart="76"/>
    <vehicle id="vertical_18" type="normal_car" route="vertical" depart="81"/>
    <vehicle id="left_19" type="normal_car" route="always_left" depart="83"/>
    <vehicle id="emergency_3" type="ambulance" route="horizontal" depart="88" departSpeed="max"/>
    <vehicle id="horizontal_21" type="normal_car" route="horizontal" depart="89"/>
    <vehicle id="vertical_22" type="normal_car" route="vertical" depart="94"/>
    <vehicle id="horizontal_23" type="normal_car" route="horizontal" depart="96"/>
    <vehicle id="emergency_4" type="firetruck" route="horizontal" depart="100" departSpeed="max"/>
    <vehicle id="emergency_5" type="ambulance" route="north_south" depart="111" departSpeed="max"/>
    <vehicle id="horizontal_26" type="normal_car" route="horizontal" depart="118"/>
    <vehicle id="vertical_27" type="normal_car" route="vertical" depart="121"/>
    <vehicle id="horizontal_28" type="normal_car" route="horizontal" depart="127"/>
    <vehicle id="horizontal_29" type="normal_bus" route="horizontal" depart="129"/>
    <vehicle id="left_30" type="normal_bus" route="always_left" depart="129"/>
    <vehicle id="right_31" type="normal_car" route="always_right" depart="132"/>
    <vehicle id="emergency_6" type="ambulance" route="east_west" depart="133" departSpeed="max"/>
    <vehicle id="horizontal_33" type="normal_bus" route="horizontal" depart="141"/>
    <vehicle id="emergency_7" type="ambulance" route="vertical" depart="143" departSpeed="max"/>
    <vehicle id="vertical_35" type="normal_car" route="vertical" depart="144"/>
    <vehicle id="vertical_36" type="normal_bus" route="vertical" depart="147"/>
    <vehicle id="horizontal_37" type="normal_car" route="horizontal" depart="148"/>
    <vehicle id="horizontal_38" type="normal_car" route="horizontal" depart="150"/>
    <vehicle id="vertical_39" type="normal_car" route="vertical" depart="153"/>
    <vehicle id="emergency_8" type="firetruck" route="south_north" depart="156" departSpeed="max"/>
    <vehicle id="emergency_9" type="police" route="north_south" depart="160" departSpeed="max"/>
    <vehicle id="horizontal_42" type="normal_car" route="horizontal" depart="162"/>
    <vehicle id="horizontal_43" type="normal_truck" route="horizontal" depart="164"/>
    <vehicle id="right_44" type="normal_car" route="always_right" depart="170"/>
    <vehicle id="right_45" type="normal_bus" route="always_right" depart="171"/>
    <vehicle id="horizontal_46" type="normal_car" route="horizontal" depart="172"/>
    <vehicle id="emergency_10" type="firetruck" route="horizontal" depart="175" departSpeed="max"/>
    <vehicle id="emergency_11" type="police" route="east_west" depart="179" departSpeed="max"/>
    <vehicle id="vertical_49" type="normal_car" route="vertical" depart="180"/>
    <vehicle id="left_50" type="normal_car" route="always_left" depart="180"/>
    <vehicle id="vertical_51" type="normal_truck" route="vertical" depart="181"/>
    <vehicle id="emergency_12" type="ambulance" route="south_north" depart="190" departSpeed="max"/>
    <vehicle id="left_53" type="normal_car" route="always_left" depart="193"/>
    <vehicle id="horizontal_54" type="normal_car" route="horizontal" depart="194"/>
    <vehicle id="right_55" type="normal_car" route="always_right" depart="196"/>
    <vehicle id="left_56" type="normal_car" route="always_left" depart="199"/>
    <vehicle id="vertical_57" type="normal_car" route="vertical" depart="204"/>
    <vehicle id="horizontal_58" type="normal_car" route="horizontal" depart="205"/>
    <vehicle id="vertical_59" type="normal_car" route="vertical" depart="205"/>
    <vehicle id="vertical_60" type="normal_car" route="vertical" depart="206"/>
    <vehicle id="vertical_61" type="normal_car" route="vertical" depart="212"/>
    <vehicle id="vertical_62" type="normal_car" route="vertical" depart="218"/>
    <vehicle id="left_63" type="normal_car" route="always_left" depart="218"/>
    <vehicle id="vertical_64" type="normal_truck" route="vertical" depart="219"/>
    <vehicle id="vertical_65" type="normal_car" route="vertical" depart="221"/>
    <vehicle id="vertical_66" type="normal_car" route="vertical" depart="228"/>
    <vehicle id="vertical_67" type="normal_car" route="vertical" depart="230"/>
    <vehicle id="emergency_13" type="ambulance" route="east_west" depart="231" departSpeed="max"/>
    <vehicle id="horizontal_69" type="normal_car" route="horizontal" depart="235"/>
    <vehicle id="vertical_70" type="normal_bus" route="vertical" depart="239"/>
    <vehicle id="emergency_14" type="police" route="south_north" depart="241" departSpeed="max"/>
    <vehicle id="emergency_15" type="police" route="south_north" depart="242" departSpeed="max"/>
    <vehicle id="vertical_73" type="normal_car" route="vertical" depart="248"/>
    <vehicle id="horizontal_74" type="normal_car" route="horizontal" depart="252"/>
    <vehicle id="horizontal_75" type="normal_car" route="horizontal" depart="253"/>
    <vehicle id="vertical_76" type="normal_car" route="vertical" depart="277"/>
    <vehicle id="vertical_77" type="normal_car" route="vertical" depart="286"/>
    <vehicle id="right_78" type="normal_bus" route="always_right" depart="287"/>
    <vehicle id="vertical_79" type="normal_car" route="vertical" depart="289"/>
    <vehicle id="emergency_16" type="police" route="east_west" depart="295" departSpeed="max"/>
    <vehicle id="emergency_17" type="police" route="vertical" depart="309" departSpeed="max"/>
    <vehicle id="vertical_82" type="normal_car" route="vertical" depart="314"/>
    <vehicle id="right_83" type="normal_car" route="always_right" depart="325"/>
    <vehicle id="horizontal_84" type="normal_car" route="horizontal" depart="332"/>
    <vehicle id="emergency_18" type="ambulance" route="west_east" depart="335" departSpeed="max"/>
    <vehicle id="horizontal_86" type="normal_car" route="horizontal" depart="337"/>
    <vehicle id="horizontal_87" type="normal_car" route="horizontal" depart="338"/>
    <vehicle id="horizontal_88" type="normal_car" route="horizontal" depart="339"/>
    <vehicle id="horizontal_89" type="normal_car" route="horizontal" depart="343"/>
    <vehicle id="emergency_19" type="police" route="east_west" depart="346" departSpeed="max"/>
    <vehicle id="horizontal_91" type="normal_bus" route="horizontal" depart="347"/>
    <vehicle id="vertical_92" type="normal_bus" route="vertical" depart="347"/>
    <vehicle id="right_93" type="normal_bus" route="always_right" depart="347"/>
    <vehicle id="horizontal_94" type="normal_car" route="horizontal" depart="352"/>
    <vehicle id="right_95" type="normal_truck" route="always_right" depart="353"/>
    <vehicle id="left_96" type="normal_car" route="always_left" depart="361"/>
    <vehicle id="horizontal_97" type="normal_truck" route="horizontal" depart="372"/>
    <vehicle id="emergency_20" type="firetruck" route="horizontal" depart="375" departSpeed="max"/>
    <vehicle id="horizontal_99" type="normal_car" route="horizontal" depart="380"/>
    <vehicle id="vertical_100" type="normal_bus" route="vertical" depart="387"/>
    <vehicle id="horizontal_101" type="normal_car" route="horizontal" depart="390"/>
    <vehicle id="emergency_21" type="firetruck" route="west_east" depart="391" departSpeed="max"/>
    <vehicle id="horizontal_103" type="normal_car" route="horizontal" depart="393"/>
    <vehicle id="vertical_104" type="normal_car" route="vertical" depart="397"/>
    <vehicle id="emergency_22" type="firetruck" route="vertical" depart="398" departSpeed="max"/>
    <vehicle id="vertical_106" type="normal_car" route="vertical" depart="405"/>
    <vehicle id="horizontal_107" type="normal_truck" route="horizontal" depart="406"/>
    <vehicle id="right_108" type="normal_truck" route="always_right" depart="413"/>
    <vehicle id="vertical_109" type="normal_car" route="vertical" depart="419"/>
    <vehicle id="horizontal_110" type="normal_car" route="horizontal" depart="424"/>
    <vehicle id="vertical_111" type="normal_bus" route="vertical" depart="425"/>
    <vehicle id="horizontal_112" type="normal_truck" route="horizontal" depart="427"/>
    <vehicle id="vertical_113" type="normal_truck" route="vertical" depart="427"/>
    <vehicle id="horizontal_114" type="normal_truck" route="horizontal" depart="430"/>
    <vehicle id="emergency_23" type="firetruck" route="vertical" depart="433" departSpeed="max"/>
    <vehicle id="horizontal_116" type="normal_car" route="horizontal" depart="435"/>
    <vehicle id="horizontal_117" type="normal_car" route="horizontal" depart="436"/>
    <vehicle id="right_118" type="normal_car" route="always_right" depart="438"/>
    <vehicle id="vertical_119" type="normal_car" route="vertical" depart="441"/>
    <vehicle id="horizontal_120" type="normal_car" route="horizontal" depart="447"/>
    <vehicle id="emergency_24" type="police" route="vertical" depart="448" departSpeed="max"/>
    <vehicle id="left_122" type="normal_car" route="always_left" depart="456"/>
    <vehicle id="horizontal_123" type="normal_truck" route="horizontal" depart="458"/>
    <vehicle id="left_124" type="normal_bus" route="always_left" depart="459"/>
    <vehicle id="horizontal_125" type="normal_car" route="horizontal" depart="463"/>
    <vehicle id="vertical_126" type="normal_car" route="vertical" depart="472"/>
    <vehicle id="left_127" type="normal_car" route="always_left" depart="475"/>
    <vehicle id="emergency_25" type="ambulance" route="west_east" depart="481" departSpeed="max"/>
    <vehicle id="right_129" type="normal_car" route="always_right" depart="489"/>
    <vehicle id="horizontal_130" type="normal_bus" route="horizontal" depart="490"/>
    <vehicle id="vertical_131" type="normal_car" route="vertical" depart="491"/>
    <vehicle id="horizontal_132" type="normal_car" route="horizontal" depart="493"/>
    <vehicle id="emergency_26" type="firetruck" route="south_north" depart="495" departSpeed="max"/>
    <vehicle id="horizontal_134" type="normal_car" route="horizontal" depart="497"/>
    <vehicle id="horizontal_135" type="normal_car" route="horizontal" depart="503"/>
    <vehicle id="emergency_27" type="police" route="vertical" depart="504" departSpeed="max"/>
    <vehicle id="left_137" type="normal_car" route="always_left" depart="514"/>
    <vehicle id="vertical_138" type="normal_car" route="vertical" depart="518"/>
    <vehicle id="vertical_139" type="normal_truck" route="vertical" depart="519"/>
    <vehicle id="horizontal_140" type="normal_car" route="horizontal" depart="521"/>
    <vehicle id="horizontal_141" type="normal_car" route="horizontal" depart="524"/>
    <vehicle id="emergency_28" type="police" route="vertical" depart="530" departSpeed="max"/>
    <vehicle id="emergency_29" type="ambulance" route="east_west" depart="532" departSpeed="max"/>
    <vehicle id="horizontal_144" type="normal_car" route="horizontal" depart="537"/>
    <vehicle id="vertical_145" type="normal_car" route="vertical" depart="542"/>
    <vehicle id="emergency_30" type="police" route="east_west" depart="543" departSpeed="max"/>
    <vehicle id="emergency_31" type="police" route="north_south" depart="553" departSpeed="max"/>
    <vehicle id="emergency_32" type="ambulance" route="east_west" depart="557" departSpeed="max"/>
    <vehicle id="left_149" type="normal_car" route="always_left" depart="558"/>
    <vehicle id="right_150" type="normal_car" route="always_right" depart="558"/>
    <vehicle id="vertical_151" type="normal_truck" route="vertical" depart="561"/>
    <vehicle id="horizontal_152" type="normal_truck" route="horizontal" depart="566"/>
    <vehicle id="vertical_153" type="normal_car" route="vertical" depart="572"/>
    <vehicle id="emergency_33" type="firetruck" route="west_east" depart="573" departSpeed="max"/>
    <vehicle id="horizontal_155" type="normal_truck" route="horizontal" depart="574"/>
    <vehicle id="vertical_156" type="normal_car" route="vertical" depart="582"/>
    <vehicle id="right_157" type="normal_car" route="always_right" depart="585"/>
    <vehicle id="horizontal_158" type="normal_car" route="horizontal" depart="586"/>
    <vehicle id="left_159" type="normal_car" route="always_left" depart="589"/>
    <vehicle id="vertical_160" type="normal_car" route="vertical" depart="610"/>
    <vehicle id="emergency_34" type="firetruck" route="vertical" depart="615" departSpeed="max"/>
    <vehicle id="vertical_162" type="normal_truck" route="vertical" depart="618"/>
    <vehicle id="right_163" type="normal_car" route="always_right" depart="624"/>
    <vehicle id="emergency_35" type="police" route="west_east" depart="630" departSpeed="max"/>
    <vehicle id="horizontal_165" type="normal_car" route="horizontal" depart="631"/>
    <vehicle id="emergency_36" type="ambulance" route="south_north" depart="632" departSpeed="max"/>
    <vehicle id="emergency_37" type="police" route="north_south" depart="635" departSpeed="max"/>
    <vehicle id="horizontal_168" type="normal_car" route="horizontal" depart="636"/>
    <vehicle id="horizontal_169" type="normal_car" route="horizontal" depart="643"/>
    <vehicle id="horizontal_170" type="normal_bus" route="horizontal" depart="645"/>
    <vehicle id="horizontal_171" type="normal_car" route="horizontal" depart="651"/>
    <vehicle id="horizontal_172" type="normal_car" route="horizontal" depart="657"/>
    <vehicle id="horizontal_173" type="normal_car" route="horizontal" depart="672"/>
    <vehicle id="horizontal_174" type="normal_car" route="horizontal" depart="673"/>
    <vehicle id="left_175" type="normal_car" route="always_left" depart="674"/>
    <vehicle id="horizontal_176" type="normal_car" route="horizontal" depart="676"/>
    <vehicle id="emergency_38" type="ambulance" route="east_west" depart="679" departSpeed="max"/>
    <vehicle id="horizontal_178" type="normal_car" route="horizontal" depart="681"/>
    <vehicle id="vertical_179" type="normal_car" route="vertical" depart="683"/>
    <vehicle id="emergency_39" type="police" route="south_north" depart="692" departSpeed="max"/>
    <vehicle id="left_181" type="normal_car" route="always_left" depart="695"/>
    <vehicle id="right_182" type="normal_truck" route="always_right" depart="701"/>
    <vehicle id="horizontal_183" type="normal_car" route="horizontal" depart="708"/>
    <vehicle id="horizontal_184" type="normal_car" route="horizontal" depart="711"/>
    <vehicle id="emergency_40" type="ambulance" route="west_east" depart="719" departSpeed="max"/>
    <vehicle id="horizontal_186" type="normal_truck" route="horizontal" depart="720"/>
    <vehicle id="horizontal_187" type="normal_car" route="horizontal" depart="723"/>
    <vehicle id="horizontal_188" type="normal_car" route="horizontal" depart="726"/>
    <vehicle id="right_189" type="normal_car" route="always_right" depart="730"/>
    <vehicle id="vertical_190" type="normal_car" route="vertical" depart="732"/>
    <vehicle id="horizontal_191" type="normal_car" route="horizontal" depart="734"/>
    <vehicle id="left_192" type="normal_truck" route="always_left" depart="736"/>
    <vehicle id="left_193" type="normal_truck" route="always_left" depart="738"/>
    <vehicle id="horizontal_194" type="normal_bus" route="horizontal" depart="739"/>
    <vehicle id="emergency_41" type="firetruck" route="west_east" depart="740" departSpeed="max"/>
    <vehicle id="emergency_42" type="ambulance" route="west_east" depart="741" departSpeed="max"/>
    <vehicle id="emergency_43" type="ambulance" route="north_south" depart="742" departSpeed="max"/>
    <vehicle id="horizontal_198" type="normal_car" route="horizontal" depart="746"/>
    <vehicle id="horizontal_199" type="normal_car" route="horizontal" depart="748"/>
    <vehicle id="vertical_200" type="normal_car" route="vertical" depart="759"/>
    <vehicle id="left_201" type="normal_car" route="always_left" depart="761"/>
    <vehicle id="horizontal_202" type="normal_car" route="horizontal" depart="762"/>
    <vehicle id="right_203" type="normal_car" route="always_right" depart="768"/>
    <vehicle id="emergency_44" type="ambulance" route="south_north" depart="772" departSpeed="max"/>
    <vehicle id="vertical_205" type="normal_car" route="vertical" depart="777"/>
    <vehicle id="right_206" type="normal_car" route="always_right" depart="778"/>
    <vehicle id="emergency_45" type="firetruck" route="north_south" depart="780" departSpeed="max"/>
    <vehicle id="right_208" type="normal_car" route="always_right" depart="782"/>
    <vehicle id="vertical_209" type="normal_car" route="vertical" depart="783"/>
    <vehicle id="emergency_46" type="police" route="vertical" depart="787" departSpeed="max"/>
    <vehicle id="horizontal_211" type="normal_car" route="horizontal" depart="792"/>
    <vehicle id="left_212" type="normal_truck" route="always_left" depart="793"/>
    <vehicle id="horizontal_213" type="normal_bus" route="horizontal" depart="795"/>
    <vehicle id="vertical_214" type="normal_car" route="vertical" depart="796"/>
    <vehicle id="emergency_47" type="firetruck" route="north_south" depart="797" departSpeed="max"/>
    <vehicle id="left_216" type="normal_truck" route="always_left" depart="800"/>
    <vehicle id="vertical_217" type="normal_bus" route="vertical" depart="815"/>
    <vehicle id="horizontal_218" type="normal_car" route="horizontal" depart="821"/>
    <vehicle id="horizontal_219" type="normal_bus" route="horizontal" depart="823"/>
    <vehicle id="right_220" type="normal_car" route="always_right" depart="826"/>
    <vehicle id="right_221" type="normal_truck" route="always_right" depart="827"/>
    <vehicle id="right_222" type="normal_car" route="always_right" depart="828"/>
    <vehicle id="vertical_223" type="normal_car" route="vertical" depart="830"/>
    <vehicle id="horizontal_224" type="normal_bus" route="horizontal" depart="833"/>
    <vehicle id="horizontal_225" type="normal_car" route="horizontal" depart="835"/>
    <vehicle id="emergency_48" type="firetruck" route="horizontal" depart="836" departSpeed="max"/>
    <vehicle id="emergency_49" type="police" route="horizontal" depart="840" departSpeed="max"/>
    <vehicle id="emergency_50" type="firetruck" route="south_north" depart="843" departSpeed="max"/>
    <vehicle id="vertical_229" type="normal_car" route="vertical" depart="845"/>
    <vehicle id="horizontal_230" type="normal_bus" route="horizontal" depart="846"/>
    <vehicle id="vertical_231" type="normal_bus" route="vertical" depart="846"/>
    <vehicle id="horizontal_232" type="normal_car" route="horizontal" depart="848"/>
    <vehicle id="left_233" type="normal_car" route="always_left" depart="851"/>
    <vehicle id="emergency_51" type="police" route="south_north" depart="860" departSpeed="max"/>
    <vehicle id="emergency_52" type="ambulance" route="horizontal" depart="865" departSpeed="max"/>
    <vehicle id="emergency_53" type="police" route="vertical" depart="872" departSpeed="max"/>
    <vehicle id="emergency_54" type="ambulance" route="horizontal" depart="875" departSpeed="max"/>
    <vehicle id="horizontal_238" type="normal_car" route="horizontal" depart="883"/>
    <vehicle id="horizontal_239" type="normal_car" route="horizontal" depart="884"/>
    <vehicle id="left_240" type="normal_car" route="always_left" depart="887"/>
    <vehicle id="vertical_241" type="normal_truck" route="vertical" depart="888"/>
    <vehicle id="horizontal_242" type="normal_car" route="horizontal" depart="901"/>
    <vehicle id="vertical_243" type="normal_car" route="vertical" depart="901"/>
    <vehicle id="vertical_244" type="normal_car" route="vertical" depart="903"/>
    <vehicle id="horizontal_245" type="normal_car" route="horizontal" depart="905"/>
    <vehicle id="right_246" type="normal_car" route="always_right" depart="907"/>
    <vehicle id="emergency_55" type="firetruck" route="west_east" depart="917" departSpeed="max"/>
    <vehicle id="horizontal_248" type="normal_bus" route="horizontal" depart="932"/>
    <vehicle id="horizontal_249" type="normal_truck" route="horizontal" depart="934"/>
    <vehicle id="horizontal_250" type="normal_car" route="horizontal" depart="937"/>
    <vehicle id="left_251" type="normal_car" route="always_left" depart="939"/>
    <vehicle id="emergency_56" type="police" route="south_north" depart="942" departSpeed="max"/>
    <vehicle id="horizontal_253" type="normal_car" route="horizontal" depart="943"/>
    <vehicle id="horizontal_254" type="normal_car" route="horizontal" depart="966"/>
    <vehicle id="vertical_255" type="normal_car" route="vertical" depart="967"/>
    <vehicle id="emergency_57" type="police" route="vertical" depart="970" departSpeed="max"/>
    <vehicle id="emergency_58" type="police" route="horizontal" depart="973" departSpeed="max"/>
    <vehicle id="emergency_59" type="police" route="south_north" depart="978" departSpeed="max"/>
    <vehicle id="right_259" type="normal_car" route="always_right" depart="992"/>
    <vehicle id="horizontal_260" type="normal_car" route="horizontal" depart="1005"/>
    <vehicle id="vertical_261" type="normal_bus" route="vertical" depart="1013"/>
    <vehicle id="horizontal_262" type="normal_car" route="horizontal" depart="1018"/>
    <vehicle id="emergency_60" type="police" route="south_north" depart="1019" departSpeed="max"/>
    <vehicle id="vertical_264" type="normal_truck" route="vertical" depart="1026"/>
    <vehicle id="left_265" type="normal_truck" route="always_left" depart="1028"/>
    <vehicle id="horizontal_266" type="normal_truck" route="horizontal" depart="1029"/>
    <vehicle id="horizontal_267" type="normal_car" route="horizontal" depart="1034"/>
    <vehicle id="emergency_61" type="ambulance" route="west_east" depart="1035" departSpeed="max"/>
    <vehicle id="horizontal_269" type="normal_bus" route="horizontal" depart="1043"/>
    <vehicle id="horizontal_270" type="normal_car" route="horizontal" depart="1052"/>
    <vehicle id="horizontal_271" type="normal_car" route="horizontal" depart="1055"/>
    <vehicle id="right_272" type="normal_car" route="always_right" depart="1056"/>
    <vehicle id="horizontal_273" type="normal_car" route="horizontal" depart="1057"/>
    <vehicle id="horizontal_274" type="normal_car" route="horizontal" depart="1059"/>
    <vehicle id="left_275" type="normal_car" route="always_left" depart="1061"/>
    <vehicle id="vertical_276" type="normal_car" route="vertical" depart="1062"/>
    <vehicle id="horizontal_277" type="normal_truck" route="horizontal" depart="1064"/>
    <vehicle id="emergency_62" type="firetruck" route="east_west" depart="1065" departSpeed="max"/>
    <vehicle id="vertical_279" type="normal_car" route="vertical" depart="1066"/>
    <vehicle id="emergency_63" type="firetruck" route="west_east" depart="1067" departSpeed="max"/>
    <vehicle id="vertical_281" type="normal_car" route="vertical" depart="1068"/>
    <vehicle id="left_282" type="normal_car" route="always_left" depart="1068"/>
    <vehicle id="horizontal_283" type="normal_car" route="horizontal" depart="1070"/>
    <vehicle id="vertical_284" type="normal_car" route="vertical" depart="1070"/>
    <vehicle id="right_285" type="normal_car" route="always_right" depart="1070"/>
    <vehicle id="horizontal_286" type="normal_car" route="horizontal" depart="1073"/>
    <vehicle id="horizontal_287" type="normal_car" route="horizontal" depart="1075"/>
    <vehicle id="horizontal_288" type="normal_car" route="horizontal" depart="1076"/>
    <vehicle id="horizontal_289" type="normal_car" route="horizontal" depart="1077"/>
    <vehicle id="vertical_290" type="normal_car" route="vertical" depart="1077"/>
    <vehicle id="horizontal_291" type="normal_car" route="horizontal" depart="1080"/>
    <vehicle id="horizontal_292" type="normal_car" route="horizontal" depart="1081"/>
    <vehicle id="emergency_64" type="firetruck" route="south_north" depart="1082" departSpeed="max"/>
    <vehicle id="horizontal_294" type="normal_car" route="horizontal" depart="1085"/>
    <vehicle id="horizontal_295" type="normal_bus" route="horizontal" depart="1086"/>
    <vehicle id="horizontal_296" type="normal_car" route="horizontal" depart="1087"/>
    <vehicle id="vertical_297" type="normal_car" route="vertical" depart="1087"/>
    <vehicle id="vertical_298" type="normal_car" route="vertical" depart="1090"/>
    <vehicle id="horizontal_299" type="normal_car" route="horizontal" depart="1092"/>
    <vehicle id="horizontal_300" type="normal_car" route="horizontal" depart="1095"/>
    <vehicle id="right_301" type="normal_car" route="always_right" depart="1095"/>
    <vehicle id="horizontal_302" type="normal_truck" route="horizontal" depart="1096"/>
    <vehicle id="vertical_303" type="normal_truck" route="vertical" depart="1096"/>
    <vehicle id="vertical_304" type="normal_truck" route="vertical" depart="1097"/>
    <vehicle id="horizontal_305" type="normal_car" route="horizontal" depart="1098"/>
    <vehicle id="vertical_306" type="normal_car" route="vertical" depart="1098"/>
    <vehicle id="horizontal_307" type="normal_bus" route="horizontal" depart="1099"/>
    <vehicle id="vertical_308" type="normal_bus" route="vertical" depart="1099"/>
    <vehicle id="horizontal_309" type="normal_car" route="horizontal" depart="1100"/>
    <vehicle id="horizontal_310" type="normal_car" route="horizontal" depart="1101"/>
    <vehicle id="horizontal_311" type="normal_bus" route="horizontal" depart="1103"/>
    <vehicle id="horizontal_312" type="normal_car" route="horizontal" depart="1104"/>
    <vehicle id="left_313" type="normal_car" route="always_left" depart="1104"/>
    <vehicle id="emergency_65" type="firetruck" route="horizontal" depart="1105" departSpeed="max"/>
    <vehicle id="left_315" type="normal_car" route="always_left" depart="1107"/>
    <vehicle id="vertical_316" type="normal_car" route="vertical" depart="1108"/>
    <vehicle id="left_317" type="normal_car" route="always_left" depart="1108"/>
    <vehicle id="vertical_318" type="normal_car" route="vertical" depart="1110"/>
    <vehicle id="left_319" type="normal_car" route="always_left" depart="1112"/>
    <vehicle id="left_320" type="normal_car" route="always_left" depart="1115"/>
    <vehicle id="horizontal_321" type="normal_truck" route="horizontal" depart="1116"/>
    <vehicle id="horizontal_322" type="normal_bus" route="horizontal" depart="1117"/>
    <vehicle id="vertical_323" type="normal_bus" route="vertical" depart="1117"/>
    <vehicle id="vertical_324" type="normal_bus" route="vertical" depart="1118"/>
    <vehicle id="emergency_66" type="ambulance" route="east_west" depart="1120" departSpeed="max"/>